[TITLE]


[JUNCTIONS]
;ID              	Elev        	Demand      	Pattern         
 2               	95          	1.5         	007             	;
 3               	93          	1.0         	008             	;
 4               	90          	0.5         	009             	;
 5               	88          	1           	010             	;
 6               	82          	1           	011             	;
 L3              	91          	0           	                	;
 L1              	95          	0           	                	;
 L2              	94          	0           	                	;
 L4              	89          	0           	                	;
 L5              	86          	0           	                	;

[RESERVOIRS]
;ID              	Head        	Pattern         
 1               	130         	                	;

[TANKS]
;ID              	Elevation   	InitLevel   	MinLevel    	MaxLevel    	Diameter    	MinVol      	VolCurve        	Overflow

[PIPES]
;ID              	Node1           	Node2           	Length      	Diameter    	Roughness   	MinorLoss   	Status
 3a              	3               	L3              	100         	75          	100         	0           	Open  	;
 3b              	L3              	4               	100         	75          	100         	0           	Open  	;
 1a              	1               	L1              	50          	100         	100         	0           	Open  	;
 1b              	L1              	2               	50          	100         	100         	0           	Open  	;
 2a              	2               	L2              	250         	100         	100         	0           	Open  	;
 2b              	L2              	3               	250         	100         	100         	0           	Open  	;
 4a              	4               	L4              	100         	50          	100         	0           	Open  	;
 4b              	L4              	5               	100         	50          	100         	0           	Open  	;
 5a              	4               	L5              	100         	50          	100         	0           	Open  	;
 5b              	L5              	6               	100         	50          	100         	0           	Open  	;

[PUMPS]
;ID              	Node1           	Node2           	Parameters

[VALVES]
;ID              	Node1           	Node2           	Diameter    	Type	Setting     	MinorLoss   

[TAGS]

[DEMANDS]
;Junction        	Demand      	Pattern         	Category

[STATUS]
;ID              	Status/Setting

[PATTERNS]
;ID              	Multipliers
;0.960000
 002             	0.960000    	0.960000    	0.960000    	0.960000    	0.960000    	0.960000    
 002             	0.960000    	0.960000    	0.960000    	0.960000    	0.960000    	0.960000    
 002             	0.960000    	0.960000    	0.960000    	0.960000    	0.960000    	0.960000    
 002             	0.960000    	0.960000    	0.960000    	0.960000    	0.960000    	0.960000    
 002             	0.960000    	0.960000    	0.960000    	0.960000    	0.960000    	0.960000    
 002             	0.960000    	0.960000    	0.960000    	0.960000    	0.960000    	0.960000    
 002             	0.960000    	0.960000    	0.960000    	0.960000    	0.960000    	0.960000    
 002             	0.960000    	0.960000    	0.960000    	0.960000    	0.960000    	0.960000    
 002             	0.960000    	0.960000    	0.960000    	0.960000    	0.960000    	0.960000    
 002             	0.960000    	0.960000    	0.960000    	0.960000    	0.960000    	0.960000    
 002             	0.960000    	0.960000    	0.960000    	0.960000    	0.960000    	0.960000    
 002             	0.960000    	0.960000    	0.960000    	0.960000    	0.960000    	0.960000    
 002             	0.960000    	0.960000    	0.960000    	0.960000    	0.960000    	0.960000    
 002             	0.960000    	0.960000    	0.960000    	0.960000    	0.960000    	0.960000    
 002             	0.960000    	0.960000    	0.960000    	0.960000    	0.960000    	0.960000    
 002             	0.960000    	0.960000    	0.960000    	0.960000    	0.960000    	0.960000    
 002             	0.960000    	0.960000    	0.960000    	0.960000    	0.960000    	0.960000    
 002             	0.960000    	0.960000    	0.960000    	0.960000    	0.960000    	0.960000    
 002             	0.960000    	0.960000    	0.960000    	0.960000    	0.960000    	0.960000    
 002             	0.960000    	0.960000    	0.960000    	0.960000    	0.960000    	0.960000    
 002             	0.960000    	0.960000    	0.960000    	0.960000    	0.960000    	0.960000    
 002             	0.960000    	0.960000    	0.960000    	0.960000    	0.960000    	0.960000    
 002             	0.960000    	0.960000    	0.960000    	0.960000    	0.960000    	0.960000    
 002             	0.960000    	0.960000    	0.960000    	0.960000    	0.960000    	0.960000    
 002             	0.960000    	0.960000    	0.960000    	0.960000    	0.960000    	0.960000    
 002             	0.960000    	0.960000    	0.960000    	0.960000    	0.960000    	0.960000    
 002             	0.960000    	0.960000    	0.960000    	0.960000    	0.960000    	0.960000    
 002             	0.960000    	0.960000    	0.960000    	0.960000    	0.960000    	0.960000    
 002             	0.960000    	0.960000    	0.960000    	0.960000    	0.960000    	0.960000    
 002             	0.960000    	0.960000    	0.960000    	0.960000    	0.960000    	0.960000    
 002             	0.960000    	0.960000    	0.960000    	0.960000    	0.960000    	0.960000    
 002             	0.960000    	0.960000    	0.960000    	0.960000    	0.960000    	0.960000    
 002             	0.960000    	0.960000    	0.960000    	0.960000    	0.960000    	0.960000    
 002             	0.960000    	0.960000    	0.960000    	0.960000    	0.960000    	0.960000    
 002             	0.960000    	0.960000    	0.960000    	0.960000    	0.960000    	0.960000    
 002             	0.960000    	0.960000    	0.960000    	0.960000    	0.960000    	0.960000    
 002             	0.960000    	0.960000    	0.960000    	0.960000    	0.960000    	0.960000    
 002             	0.960000    	0.960000    	0.960000    	0.960000    	0.960000    	0.960000    
 002             	0.960000    	0.960000    	0.960000    	0.960000    	0.960000    	0.960000    
 002             	0.960000    	0.960000    	0.960000    	0.960000    	0.960000    	0.960000    
 002             	0.960000    	0.960000    	0.960000    	0.960000    	0.960000    	0.960000    
 002             	0.960000    	0.960000    	0.960000    	0.960000    	0.960000    	0.960000    
 002             	0.960000    	0.960000    	0.960000    	0.960000    	0.960000    	0.960000    
 002             	0.960000    	0.960000    	0.960000    	0.960000    	0.960000    	0.960000    
 002             	0.960000    	0.960000    	0.960000    	0.960000    	0.960000    	0.960000    
 002             	0.960000    	0.960000    	0.960000    	0.960000    	0.960000    	0.960000    
 002             	0.960000    	0.960000    	0.960000    	0.960000    	0.960000    	0.960000    
 002             	0.960000    	0.960000    	0.960000    	0.960000    	0.960000    	0.960000    
 002             	0.960000    	0.960000    	0.960000    	0.960000    	0.960000    	0.960000    
 002             	0.960000    	0.960000    	0.960000    	0.960000    	0.960000    	0.960000    
 002             	0.960000    	0.960000    	0.960000    	0.960000    	0.960000    	0.960000    
 002             	0.960000    	0.960000    	0.960000    	0.960000    	0.960000    	0.960000    
 002             	0.960000    	0.960000    	0.960000    	0.960000    	0.960000    	0.960000    
 002             	0.960000    	0.960000    	0.960000    	0.960000    	0.960000    	0.960000    
 002             	0.960000    	0.960000    	0.960000    	0.960000    	0.960000    	0.960000    
 002             	0.960000    	0.960000    	0.960000    	0.960000    	0.960000    	0.960000    
 002             	0.960000    	0.960000    	0.960000    	0.960000    	0.960000    	0.960000    
 002             	0.960000    	0.960000    	0.960000    	0.960000    	0.960000    	0.960000    
 002             	0.960000    	0.960000    	0.960000    	0.960000    	0.960000    	0.960000    
 002             	0.960000    	0.960000    	0.960000    	0.960000    	0.960000    	0.960000    
 002             	0.960000    	0.960000    	0.960000    	0.960000    	0.960000    	0.960000    
 002             	0.960000    	0.960000    	0.960000    	0.960000    	0.960000    	0.960000    
 002             	0.960000    	0.960000    	0.960000    	0.960000    	0.960000    	0.960000    
 002             	0.960000    	0.960000    	0.960000    	0.960000    	0.960000    	0.960000    
 002             	0.960000    	0.960000    	0.960000    	0.960000    	0.960000    	0.960000    
 002             	0.960667    	0.960667    	0.960667    	0.960667    	0.960667    	0.960667    
 002             	0.960667    	0.960667    	0.961334    	0.961334    	0.961334    	0.961334    
 002             	0.961334    	0.961334    	0.961334    	0.961334    	0.961334    	0.961334    
 002             	0.961334    	0.961334    	0.961334    	0.961334    	0.961334    	0.961334    
 002             	0.961334    	0.961334    	0.961334    	0.961334    	0.961334    	0.961334    
 002             	0.960667    	0.960667    	0.960667    	0.960667    	0.960667    	0.960667    
 002             	0.960667    	0.960667    	0.960000    	0.960000    	0.960000    	0.960000    
 002             	0.960000    	0.960000    	0.960000    	0.960000    	0.960000    	0.960000    
 002             	0.960000    	0.960000    	0.960000    	0.960000    	0.960000    	0.960000    
 002             	0.960667    	0.960667    	0.960667    	0.960667    	0.960667    	0.960667    
 002             	0.960667    	0.960667    	0.960667    	0.960667    	0.960667    	0.960667    
 002             	0.960667    	0.960667    	0.960667    	0.960667    	0.960667    	0.960667    
 002             	0.960667    	0.960667    	0.960667    	0.972005    	1.017359    	1.024029    
 002             	1.024029    	1.024029    	1.024029    	1.024029    	1.024029    	1.024029    
 002             	1.023362    	1.023362    	1.023362    	1.023362    	1.023362    	1.023362    
 002             	1.023362    	1.023362    	1.023362    	1.023362    	1.023362    	1.023362    
 002             	1.023362    	1.023362    	1.023362    	1.023362    	1.024029    	1.024029    
 002             	1.024029    	1.024029    	1.024029    	1.012690    	0.988013    	0.981343    
 002             	0.981343    	0.981343    	0.981343    	0.981343    	0.981343    	0.981343    
 002             	0.981343    	0.981343    	0.981343    	0.981343    	0.981343    	0.981343    
 002             	0.981343    	0.981343    	0.981343    	0.981343    	0.981343    	0.981343    
 002             	0.981343    	0.981343    	0.981343    	0.981343    	0.980676    	0.980676    
 002             	0.980676    	0.980676    	0.980676    	0.980676    	0.960000    	0.960000    
 002             	0.960000    	0.960000    	0.960000    	0.960000    	0.960000    	0.960000    
 002             	0.960000    	0.960000    	0.960000    	0.960000    	0.960000    	0.966003    
 002             	0.966003    	0.976674    	0.976674    	0.976674    	0.976674    	0.976674    
 002             	0.976674    	0.976674    	0.976674    	0.976674    	0.976674    	0.976674    
 002             	1.004687    	1.008021    	1.016692    	1.036034    	1.042037    	1.042037    
 002             	1.042037    	1.056043    	1.056043    	1.056043    	1.064046    	1.098729    
 002             	1.122739    	1.135412    	1.135412    	1.135412    	1.135412    	1.129409    
 002             	1.129409    	1.118738    	1.118738    	1.118738    	1.118738    	1.118738    
 002             	1.118738    	1.118738    	1.118738    	1.118738    	1.118738    	1.118738    
 002             	1.090725    	1.087390    	1.078720    	1.059378    	1.066714    	1.113402    
 002             	1.154087    	1.140080    	1.140080    	1.140080    	1.132077    	1.097395    
 002             	1.073384    	1.060712    	1.060712    	1.060712    	1.060712    	1.071383    
 002             	1.099396    	1.147417    	1.147417    	1.147417    	1.147417    	1.147417    
 002             	1.147417    	1.147417    	1.147417    	1.147417    	1.147417    	1.147417    
 002             	1.172095    	1.215447    	1.215447    	1.263469    	1.320828    	1.346839    
 002             	1.372851    	1.437547    	1.502909    	1.577609    	1.652976    	1.727676    
 002             	1.803043    	1.877743    	1.921763    	1.981789    	1.994462    	1.983790    
 002             	1.955778    	1.907756    	1.949775    	1.949775    	1.949775    	1.949775    
 002             	1.949775    	1.949775    	1.949775    	1.949775    	1.949775    	1.949775    
 002             	1.925098    	1.881745    	1.881745    	1.833723    	1.775031    	1.744350    
 002             	1.684990    	1.620295    	1.554932    	1.480232    	1.404865    	1.330165    
 002             	1.254798    	1.180098    	1.136079    	1.076052    	1.063379    	1.063379    
 002             	1.063379    	1.063379    	1.021361    	1.021361    	1.021361    	1.021361    
 002             	1.021361    	1.021361    	1.021361    	1.021361    	1.050707    	1.098062    
 002             	1.112068    	1.112068    	1.112068    	1.112068    	1.100063    	1.058044    
 002             	1.050707    	1.053375    	1.084722    	1.128075    	1.133411    	1.133411    
 002             	1.133411    	1.133411    	1.133411    	1.133411    	1.133411    	1.133411    
 002             	1.133411    	1.133411    	1.133411    	1.133411    	1.133411    	1.133411    
 002             	1.133411    	1.134078    	1.134078    	1.134078    	1.104731    	1.057377    
 002             	1.043371    	1.043371    	1.043371    	1.043371    	1.043371    	1.043371    
 002             	1.043371    	1.040703    	1.009355    	0.966003    	0.960667    	0.960667    
 002             	0.960667    	0.960667    	0.960667    	0.961334    	0.961334    	0.961334    
 002             	0.961334    	0.961334    	0.982010    	1.056710    	1.132744    	1.209445    
 002             	1.280143    	1.355510    	1.426208    	1.501575    	1.576942    	1.617627    
 002             	1.617627    	1.617627    	1.617627    	1.617627    	1.617627    	1.617627    
 002             	1.617627    	1.632967    	1.705666    	1.782367    	1.858401    	1.929766    
 002             	1.941772    	1.941772    	1.941772    	1.941105    	1.941105    	1.960447    
 002             	1.960447    	1.960447    	1.939771    	1.865071    	1.832389    	1.772363    
 002             	1.701664    	1.625630    	1.554932    	1.479565    	1.404198    	1.363513    
 002             	1.363513    	1.363513    	1.363513    	1.363513    	1.363513    	1.363513    
 002             	1.363513    	1.348173    	1.275474    	1.198773    	1.122739    	1.051374    
 002             	1.039369    	1.039369    	1.039369    	1.039369    	1.039369    	1.020027    
 002             	1.020027    	1.020027    	1.020027    	1.020027    	0.976674    	0.960000    
 002             	0.960000    	0.960000    	0.960000    	0.960000    	0.960000    	0.960000    
 002             	0.960000    	0.960000    	0.960000    	0.960000    	0.960000    	0.960000    
 002             	0.960000    	0.960000    	0.960000    	0.960000    	0.960000    	0.960000    
 002             	0.960000    	0.960000    	0.960000    	0.960000    	0.960000    	0.960000    
 002             	0.960000    	0.960000    	0.960000    	0.960000    	0.960000    	0.960000    
 002             	0.970671    	0.984678    	0.984678    	0.984678    	1.001352    	1.009355    
 002             	1.009355    	1.009355    	1.009355    	1.009355    	1.009355    	1.009355    
 002             	1.009355    	1.009355    	1.009355    	1.009355    	1.009355    	1.009355    
 002             	1.009355    	1.009355    	1.009355    	1.009355    	1.009355    	1.009355    
 002             	1.009355    	1.009355    	1.009355    	1.014691    	1.018693    	1.018693    
 002             	1.008021    	0.994015    	0.994015    	0.994015    	0.977341    	0.969338    
 002             	0.969338    	0.969338    	0.969338    	0.969338    	0.969338    	0.969338    
 002             	0.969338    	0.969338    	0.969338    	0.969338    	0.969338    	0.969338    
 002             	0.969338    	0.969338    	0.969338    	0.969338    	0.969338    	0.969338    
 002             	0.969338    	0.969338    	0.969338    	0.964002    	0.960000    	0.960000    
 002             	0.960000    	0.960000    	0.960000    	0.960000    	0.960000    	0.960000    
 002             	0.960000    	0.960000    	0.960000    	0.960000    	0.960000    	0.960000    
 002             	0.960000    	0.960000    	0.960000    	0.960000    	0.960000    	0.960000    
 002             	0.960000    	0.960000    	0.960000    	0.960000    	0.960000    	0.960000    
 002             	0.960000    	0.960000    	0.960000    	0.960000    	0.960000    	0.960000    
 002             	0.960000    	0.960000    	0.960000    	0.960000    	0.960000    	0.960000    
 002             	0.960000    	0.960000    	0.960000    	0.960000    	0.960000    	0.960000    
 002             	0.960000    	0.960000    	0.960000    	0.960000    	0.960000    	0.960000    
 002             	0.960000    	0.960000    	0.960000    	0.960000    	0.960000    	0.960000    
 002             	0.960000    	0.960000    	0.960000    	0.960000    	0.960000    	0.960000    
 002             	0.960000    	0.960000    	0.960000    	0.960000    	0.960000    	0.960000    
 002             	0.960000    	0.960000    	0.960000    	0.960000    	0.960000    	0.960000    
 002             	0.960000    	0.960000    	0.960000    	0.960000    	0.960000    	0.960000    
 002             	0.960000    	0.960000    	0.994015    	0.996016    	0.996016    	0.996016    
 002             	0.996016    	0.996016    	0.996016    	0.996016    	0.996016    	0.996016    
 002             	0.996016    	0.996016    	0.996016    	0.996016    	0.996016    	0.996016    
 002             	0.996016    	0.996016    	0.996016    	0.996016    	0.996016    	0.996016    
 002             	0.996016    	0.996016    	0.996016    	0.996016    	0.996016    	0.996016    
 002             	0.996016    	0.996016    	0.962001    	0.960000    	0.960000    	0.960000    
 002             	0.960000    	0.960000    	0.960000    	0.960000    	0.967337    	0.967337    
 002             	0.967337    	0.967337    	0.967337    	0.967337    	0.967337    	0.967337    
 002             	0.967337    	0.972672    	0.972672    	0.972672    	0.972672    	0.972672    
 002             	0.972672    	0.972672    	0.972672    	0.972672    	0.972672    	0.972672    
 002             	0.972672    	0.981343    	0.981343    	0.981343    	0.981343    	0.981343    
 002             	0.981343    	0.981343    	0.981343    	0.981343    	0.974006    	0.974006    
 002             	0.974006    	0.974006    	0.974006    	0.974006    	0.974006    	0.974006    
 002             	0.974006    	0.968671    	0.968671    	0.968671    	0.968671    	0.968671    
 002             	0.968671    	0.968671    	0.968671    	0.968671    	0.968671    	0.968671    
 002             	0.968671    	0.960000    	0.960000    	0.960000    	0.960000    	0.960000    
 002             	0.960000    	0.960000    	0.960000    	0.960000    	0.960000    	0.960000    
 002             	0.960000    	0.960000    	0.960000    	0.960000    	0.960000    	0.960000    
 002             	0.960000    	0.960000    	0.960000    	0.960000    	0.960000    	0.960000    
 002             	0.960000    	0.960000    	0.960000    	0.960000    	0.960000    	0.960000    
 002             	0.960000    	0.960000    	0.960000    	0.960000    	0.960000    	0.960000    
 002             	0.960000    	0.960000    	0.960000    	0.960000    	0.960000    	0.960000    
 002             	0.960000    	0.960000    	0.960000    	0.960000    	0.960000    	0.960000    
 002             	0.960000    	0.960000    	0.960000    	0.960000    	0.960000    	0.960000    
 002             	0.960000    	0.960000    	0.960000    	0.960000    	0.960000    	0.960000    
 002             	0.960000    	0.960000    	0.960000    	0.960000    	0.960000    	0.960000    
 002             	0.981343    	0.981343    	0.981343    	0.981343    	0.981343    	0.981343    
 002             	0.981343    	0.981343    	0.981343    	0.981343    	0.981343    	0.981343    
 002             	0.981343    	0.981343    	0.981343    	0.981343    	0.981343    	0.981343    
 002             	0.981343    	0.981343    	0.981343    	0.981343    	0.981343    	0.981343    
 002             	0.981343    	0.981343    	0.982010    	0.982010    	0.982010    	0.982010    
 002             	0.960667    	0.961334    	0.961334    	0.961334    	0.961334    	0.961334    
 002             	0.961334    	0.961334    	0.961334    	0.961334    	0.961334    	0.961334    
 002             	0.961334    	0.961334    	0.961334    	0.961334    	0.961334    	0.961334    
 002             	0.961334    	0.961334    	0.978008    	0.996683    	0.996683    	0.996683    
 002             	0.996683    	0.996683    	0.996016    	0.996016    	0.996016    	0.996016    
 002             	0.996016    	0.995349    	0.995349    	0.995349    	0.995349    	0.995349    
 002             	0.995349    	1.008021    	1.008688    	1.008688    	1.008688    	1.008688    
 002             	1.008688    	1.013357    	1.034033    	1.034033    	1.034033    	1.034033    
 002             	1.034033    	1.034033    	1.017359    	0.998684    	0.998684    	0.998684    
 002             	0.998684    	0.998684    	0.998684    	0.998684    	1.000018    	1.000018    
 002             	1.000018    	1.000018    	1.000018    	1.000018    	1.000018    	1.000018    
 002             	1.000018    	0.987346    	0.986679    	0.986679    	0.986679    	0.986679    
 002             	0.986679    	0.982010    	0.961334    	0.961334    	0.961334    	0.961334    
 002             	0.961334    	0.961334    	0.961334    	0.961334    	0.961334    	0.961334    
 002             	0.961334    	0.961334    	0.961334    	0.961334    	0.960000    	0.960000    
 002             	0.960000    	0.960000    	0.960000    	0.960000    	0.960000    	0.960000    
 002             	0.960000    	0.960000    	0.960000    	0.960000    	0.960000    	0.960000    
 002             	0.960000    	0.960000    	0.960000    	0.960000    	0.960000    	0.960000    
 002             	0.960000    	0.960000    	0.960000    	0.960000    	0.960000    	0.960000    
 002             	0.960000    	0.960000    	0.960000    	0.960000    	0.960000    	0.960000    
 002             	0.960000    	0.960000    	0.960000    	0.960000    	0.960000    	0.960000    
 002             	0.960000    	0.960000    	0.960000    	0.960000    	0.960000    	0.960000    
 002             	0.960000    	0.960000    	0.960000    	0.960000    	0.960000    	0.960000    
 002             	0.960000    	0.960000    	0.960000    	0.960000    	0.960000    	0.960000    
 002             	0.960000    	0.960000    	0.960000    	0.960000    	0.960000    	0.960000    
 002             	0.960000    	0.960000    	0.960000    	0.960000    	0.960000    	0.960000    
 002             	0.960000    	0.960000    	0.960000    	0.960000    	0.960000    	0.960000    
 002             	0.960000    	0.960000    	0.960000    	0.960000    	0.960000    	0.960000    
 002             	0.960000    	0.960000    	0.960000    	0.960000    	0.960000    	0.960000    
 002             	0.960000    	0.960000    	0.960000    	0.960000    	0.960000    	0.960000    
 002             	0.960000    	0.960000    	0.960000    	0.960000    	0.960000    	0.960000    
 002             	0.960000    	0.960000    	0.960000    	0.960000    	0.960000    	0.960000    
 002             	0.960000    	0.960000    	0.960000    	0.960000    	0.960000    	0.960000    
 002             	0.960000    	0.960000    	0.960000    	0.960000    	0.960000    	0.960000    
 002             	0.960000    	0.960000    	0.960000    	0.960000    	0.960000    	0.960000    
 002             	0.960000    	0.960000    	0.960000    	0.960000    	0.960000    	0.960000    
 002             	0.960000    	0.960000    	0.960000    	0.960000    	0.960000    	0.960000    
 002             	0.960000    	0.960000    	0.960000    	0.960000    	0.960000    	0.960000    
 002             	0.960000    	0.960000    	0.960000    	0.960000    	0.960000    	0.960000    
 002             	0.960000    	0.960000    	0.960000    	0.960000    	0.960000    	0.960000    
 002             	0.960000    	0.960000    	0.960000    	0.960000    	0.960000    	0.960000    
 002             	0.960000    	0.960000    	0.960000    	0.960000    	0.960000    	0.960000    
 002             	0.960000    	0.960000    	0.960000    	0.960000    	0.960000    	0.960000    
 002             	0.960000    	0.960000    	0.960000    	0.960000    	0.960000    	0.960000    
 002             	0.960000    	0.960000    	0.960000    	0.960000    	0.960000    	0.960000    
 002             	0.960000    	0.960000    	0.960000    	0.960000    	0.960000    	0.960000    
 002             	0.960000    	0.960000    	0.960000    	0.960000    	0.960000    	0.960000    
 002             	0.960000    	0.960000    	0.960000    	0.960000    	0.960000    	0.960000    
 002             	0.960000    	0.960000    	0.960000    	0.960000    	0.960000    	0.960000    
 002             	0.960000    	0.960000    	0.960000    	0.960000    	0.960000    	0.960000    
 002             	0.960000    	0.960000    	0.960000    	0.960000    	0.960000    	0.960000    
 002             	0.960000    	0.960000    	0.960000    	0.960000    	0.960000    	0.960000    
 002             	0.960000    	0.960000    	0.960000    	0.960000    	0.960000    	0.960000    
 002             	0.960000    	0.960000    	0.960000    	0.960000    	0.960000    	0.960000    
 002             	0.960000    	0.960000    	0.960000    	0.960000    	0.960000    	0.960000    
 002             	0.960000    	0.960000    	0.960000    	0.960000    	0.960000    	0.960000    
 002             	0.960000    	0.960000    	0.960000    	0.960000    	0.960000    	0.960000    
 002             	0.960000    	0.960000    	0.960000    	0.960000    	0.960000    	0.960000    
 002             	0.960000    	0.960000    	0.960000    	0.960000    	0.960000    	0.960000    
 002             	0.960000    	0.960000    	0.960000    	0.960000    	0.960000    	0.960000    
 002             	0.960000    	0.960000    	0.960000    	0.960000    	0.960000    	0.960000    
 002             	0.960000    	0.960000    	0.960000    	0.960000    	0.960000    	0.960000    
 002             	0.960000    	0.960000    	0.960000    	0.960000    	0.960000    	0.960000    
 002             	0.960000    	0.960000    	0.960000    	0.960000    	0.960000    	0.960000    
 002             	0.960000    	0.960000    	0.960000    	0.960000    	0.960000    	0.960000    
 002             	0.960000    	0.960000    	0.960000    	0.960000    	0.960000    	0.960000    
 002             	0.960000    	0.960000    	0.960000    	0.960000    	0.960000    	0.960000    
 002             	0.960000    	0.960000    	0.960000    	0.960000    	0.960000    	0.960000    
 002             	0.960000    	0.960000    	0.960000    	0.960000    	0.960000    	0.960000    
 002             	0.960000    	0.960000    	0.960000    	0.960000    	0.960000    	0.960000    
 002             	0.960000    	0.960000    	0.960000    	0.960000    	0.960000    	0.960000    
 002             	0.960000    	0.960000    	0.960000    	0.960000    	0.960000    	0.960000    
 002             	0.960000    	0.960000    	0.960000    	0.960000    	0.960000    	0.960000    
 002             	0.960000    	0.960000    	0.960000    	0.960000    	0.960000    	0.960000    
 002             	0.960000    	0.960000    	0.960000    	0.960000    	0.960000    	0.960000    
 002             	0.960000    	0.960000    	0.960000    	0.960000    	0.960000    	0.960000    
 002             	0.960000    	0.960000    	0.960000    	0.960000    	0.960000    	0.960000    
 002             	0.960000    	0.960000    	0.960000    	0.960000    	0.960000    	0.960000    
 002             	0.960000    	0.960000    	0.960000    	0.960000    	0.960000    	0.960000    
 002             	0.960000    	0.960000    	0.960000    	0.960000    	0.960000    	0.960000    
 002             	0.960000    	0.960000    	0.960000    	0.960000    	0.960000    	0.960000    
 002             	0.960000    	0.960000    	0.960000    	0.960000    	0.960000    	0.960000    
 002             	0.960000    	0.960000    	0.960000    	0.960000    	0.960000    	0.960000    
 002             	0.960000    	0.960000    	0.960000    	0.960000    	0.960000    	0.960000    
 002             	0.960000    	0.960000    	0.960000    	0.960000    	0.960000    	0.960000    
 002             	0.960000    	0.960000    	0.960000    	0.960000    	0.960000    	0.960000    
 002             	0.960000    	0.960000    	0.960000    	0.960000    	0.960000    	0.960000    
 002             	0.960000    	0.960000    	0.960000    	0.960000    	0.960000    	0.960000    
 002             	0.960000    	0.960000    	0.960000    	0.960000    	0.960000    	0.960000    
 002             	0.960000    	0.960000    	0.960000    	0.960000    	0.960000    	0.960000    
 002             	0.960000    	0.960000    	0.960000    	0.960000    	0.960000    	0.960000    
 002             	0.960000    	0.960000    	0.960000    	0.960000    	0.960000    	0.960000    
 002             	0.960000    	0.960000    	0.960000    	0.960000    	0.960000    	0.960000    
 002             	0.960000    	0.960000    	0.960000    	0.960000    	0.960000    	0.960000    
 002             	0.960000    	0.960000    	0.960000    	0.960000    	0.960000    	0.960000    